# avogadro generated ORCA input file 
# Basic Mode
# 
! BP RI OPT def2-SVP def2-SVP 

* xyz 0 1
   C        1.70199        0.49677       -0.59324
   C        1.66661       -0.37335       -1.84086
   O        2.55456       -1.42507       -1.69992
   C        3.60654       -1.69391       -2.51586
   O        3.84186       -0.97894       -3.48027
   C        4.49059       -2.85243       -2.24514
   C        5.59147       -3.18604       -3.01676
   C        6.14730       -4.30782       -2.43698
   C        5.37720       -4.62457       -1.33851
   N        4.36838       -3.73836       -1.22494
   S        3.13896       -3.77642        0.05561
   O        1.80755       -3.95050       -0.69255
   O        3.31308       -5.14649        0.73026
   C        3.14429       -2.41052        1.24544
   C        2.20299       -2.26770        2.22110
   C        2.28025       -1.07186        3.16806
   C        3.41326       -0.08122        2.98686
   C        4.37232       -0.37855        1.87637
   C        4.24431       -1.44200        1.08789
  Cl        5.71311        0.72813        1.61144
   C        1.35027       -0.89024        4.15844
   C        1.18870        0.18297        5.21212
   C        0.08415        0.03694        6.08394
   C       -0.17348        0.96194        7.09834
   C        0.66413        2.05938        7.27153
   C        1.75985        2.23195        6.42995
   C        2.02542        1.31013        5.41110
   N        1.16036       -3.24835        2.33041
   C        7.35797       -5.04570       -2.90504
   H        0.97709        1.33128       -0.69674
   H        2.71973        0.91858       -0.45236
   H        1.42891       -0.10407        0.29916
   H        1.90101        0.25780       -2.72562
   H        0.64303       -0.78399       -1.96977
   H        5.94995       -2.67037       -3.89852
   H        5.54755       -5.45422       -0.66470
   H        4.01746       -0.06558        3.91797
   H        2.97708        0.91380        2.75848
   H        4.97571       -1.59682        0.30184
   H        0.56997       -1.62145        4.24083
   H       -0.59348       -0.80257        5.98460
   H       -1.02606        0.82550        7.75124
   H        0.46459        2.77627        8.05755
   H        2.41005        3.08689        6.56683
   H        2.88733        1.53080        4.82059
   H        1.10998       -4.06530        1.71117
   H        0.41068       -3.21706        3.02668
   H        7.77852       -4.56727       -3.81471
   H        7.08515       -6.09488       -3.14347
   H        8.12878       -5.04034       -2.10638
*

