# avogadro generated ORCA input file 
# Basic Mode
# 
! BP RI OPT def2-SVP def2-SVP

* xyz 0 1
   C       -1.16517       -0.70744        1.31577
   C       -0.54183        0.16230        2.18343
   C        0.80723       -0.11241        2.11856
   C        0.96343       -1.14576        1.20973
   C        2.27447       -1.74133        0.85636
   O        3.28760       -1.29992        1.38137
   O        2.35194       -2.76462       -0.03145
   C        3.51061       -3.40028       -0.44022
   C        3.65823       -3.26628       -1.94819
   N       -0.25221       -1.50057        0.72300
   S       -0.67407       -2.75029       -0.46489
   O        0.20183       -2.47614       -1.69716
   O       -0.07803       -4.05509        0.08695
   C       -2.41961       -2.91232       -0.89470
   C       -3.08955       -4.09744       -0.55320
   C       -4.45987       -4.29879       -0.85442
   C       -5.12756       -3.24291       -1.51931
   C       -4.46620       -2.06315       -1.86064
   C       -3.11545       -1.88184       -1.55596
   N       -2.48498       -0.66171       -1.91998
   C       -5.18050       -5.58449       -0.48318
   C       -4.49752       -6.68079        0.10554
   C       -5.15773       -7.87498        0.45097
   C       -4.35673       -8.97427        1.06286
   C       -4.84369      -10.16374        1.44100
   C       -6.53589       -7.98313        0.20595
   C       -7.22927       -6.92426       -0.36929
   C       -6.56909       -5.74448       -0.71030
   H       -2.23026       -0.75341        1.13071
   H       -1.01885        0.91460        2.79706
   H        1.58803        0.38808        2.67640
   H        4.41604       -2.98002        0.04952
   H        3.44091       -4.47629       -0.17479
   H        3.73604       -2.19422       -2.22802
   H        2.77855       -3.71303       -2.45843
   H        4.57535       -3.79449       -2.28413
   H       -2.50738       -4.84308       -0.04525
   H       -6.16516       -3.29300       -1.79805
   H       -5.01650       -1.28101       -2.36955
   H       -3.01772        0.07667       -2.40278
   H       -1.49563       -0.47380       -1.71205
   H       -3.44168       -6.64307        0.30650
   H       -3.29403       -8.80738        1.21804
   H       -5.88432      -10.43873        1.33384
   H       -4.17513      -10.89881        1.87777
   H       -7.09321       -8.87430        0.45069
   H       -8.29230       -7.01749       -0.55336
   H       -7.18219       -4.97592       -1.14647
*

