# avogadro generated ORCA input file 
# Basic Mode
# 
! BP RI OPT def2-SVP def2-SVP 

* xyz 0 1
   C        6.34547        1.77069        0.48933
   C        5.22495        2.44060        0.90608
   C        3.80367        2.13535        1.38998
   C        2.92892        3.23928        1.22935
   C        1.57422        3.16895        1.54444
   C        1.03327        1.99113        2.03318
   C        1.84884        0.88400        2.22935
   C        3.22965        0.93095        1.94504
   C        3.99456       -0.28815        2.23849
   C        5.30697       -0.34018        2.60098
   N        5.74861       -1.60080        2.49794
   C        4.67980       -2.39247        2.21924
   C        3.55867       -1.59313        2.08853
   C        4.65409       -3.85207        1.96307
   O        5.67288       -4.51885        2.01587
   O        3.46534       -4.43843        1.65853
   C        3.26707       -5.78191        1.39407
   C        2.27724       -6.35595        2.39646
   S        7.49041       -1.88710        2.47760
   O        7.98162       -1.19951        3.76090
   O        7.76195       -3.36170        2.79964
   C        8.37740       -1.20852        1.03916
   C        9.68278       -1.68029        0.83705
   C       10.48816       -1.15320       -0.17403
  Cl       12.11777       -1.76082       -0.40377
   C       10.00540       -0.13021       -0.98859
   C        8.71342        0.36213       -0.80462
   C        7.87095       -0.16887        0.18874
   N        6.54967        0.36458        0.32143
   H        7.20059        2.40693        0.26959
   H        5.40694        3.51324        0.86344
   H        3.28723        4.17988        0.82718
   H        0.93875        4.03279        1.39611
   H       -0.02149        1.93722        2.27077
   H        1.39428       -0.01174        2.63437
   H        5.94727        0.51280        2.78127
   H        2.56955       -1.91981        1.79398
   H        4.21233       -6.36501        1.44731
   H        2.85241       -5.88769        0.36938
   H        2.68396       -6.26477        3.42604
   H        2.09668       -7.42875        2.17387
   H        1.31273       -5.80828        2.33615
   H       10.08312       -2.45326        1.48134
   H       10.63179        0.28651       -1.76712
   H        8.35931        1.15189       -1.45523
   H        5.76201       -0.28831        0.32535
*

